%nprocshared=16
%mem=16GB
#p b3lyp/6-31g(d,p) pop=mkuff iop(6/50=1,6/41=10,6/42=17) scf=tight

Title Card Required

-1 1
 N                 -2.90518300    0.82918600    0.13868400
 C                 -1.56173100    1.03427600    0.21305000
 C                 -3.11384100   -0.50920200   -0.16312500
 N                 -0.92257700   -0.08978100   -0.02142700
 H                 -1.06168600    1.97131500    0.40948600
 H                 -3.61551300    1.53013100    0.27078000
 C                 -1.86331600   -1.06090800   -0.25824000
 H                 -4.10293200   -0.92251800   -0.28211000
 H                 -1.54660500   -2.06611200   -0.48722700
 V                  1.20762300   -0.25048000    0.06705800
 O                  1.09438400    1.54435900   -0.54189100
 O                  1.25187500   -0.65636200    1.64551700
 O                  2.45625300    1.06424800   -0.29918500
 O                  1.26986800   -1.54132100   -0.93246300
 
VPO.esp 
 
VPO.esp 
